<?xml version="1.0" encoding="UTF-8"?>

<!-- generated on 2024-11-15 22:34:13 by Eclipse SUMO netedit Version 1.21.0
-->

<routes xmlns:xsi="http://www.w3.org/2001/XMLSchema-instance" xsi:noNamespaceSchemaLocation="http://sumo.dlr.de/xsd/routes_file.xsd">
    <!-- Vehicles, persons and containers (sorted by depart) -->
    <flow id="f_0" begin="0.00" from="E0" to="E9" end="1000000.00" vehsPerHour="30"/>
    <flow id="f_1" begin="0.00" from="E0" to="E5" end="1000000.00" vehsPerHour="30"/>
    <flow id="f_3" begin="0.00" from="E4" to="E5" end="1000000.00" vehsPerHour="40"/>
    <flow id="f_4" begin="0.00" from="E0" to="E7" end="1000000.00" vehsPerHour="30"/>
    <flow id="f_5" begin="0.00" from="E8" to="E9" end="1000000.00" vehsPerHour="40"/>
    <flow id="f_6" begin="0.00" from="-E3" to="E5" end="1000000.00" vehsPerHour="30"/>
    <flow id="f_7" begin="0.00" from="-E3" to="E9" end="1000000.00" vehsPerHour="30"/>
    <flow id="f_8" begin="0.00" from="-E3" to="E5" end="1000000.00" vehsPerHour="30"/>
    <flow id="f_9" begin="0.00" from="-E3" to="E7" end="1000000.00" vehsPerHour="30"/>
    <flow id="f_10" begin="0.00" from="E6" to="E7" end="1000000.00" vehsPerHour="40"/>
    <flow id="f_11" begin="0.00" from="E0" to="E3" end="1000000.00" vehsPerHour="60"/>
    <flow id="f_12" begin="0.00" from="-E3" to="-E0" end="1000000.00" vehsPerHour="60"/>
    
</routes>
